Circuit: * C:\Users\karish\OneDrive\Desktop\Digital Comm lab\exp1_Amplitude modulation and demodulation\Draft1_demodulation.asc

Direct Newton iteration for .op point succeeded.
Heightened Def Con from 0.0293503 