Circuit: * C:\Users\karish\OneDrive\Desktop\Digital Comm lab\exp2\Draft2.asc

Direct Newton iteration for .op point succeeded.

Date: Sat Jan 22 14:05:31 2022
Total elapsed time: 0.223 seconds.

tnom = 27
temp = 27
method = modified trap
totiter = 10275
traniter = 10263
tranpoints = 2997
accept = 2494
rejected = 503
matrix size = 56
fillins = 47
solver = Normal
Matrix Compiler1: 4.75 KB object code size  2.1/1.3/[0.7]
Matrix Compiler2: 4.91 KB object code size  1.1/1.5/[0.7]

